%nprocshared=4
%chk=MeNO2_isatin_product_opt.chk
# opt=tight freq scrf=(cpcm,solvent=nitromethane) def2svp m062x

MeNO2 + isatin product opt

0 1
 N                  2.23439000   -0.57219000    1.23716000
 O                  2.56884600    0.54887100    1.53110100
 O                  2.99584400   -1.46845200    0.95051900
 C                  0.77485900   -0.86137900    1.15282900
 H                  0.28808900   -0.26998700    1.93536400
 H                  0.65646500   -1.93769800    1.31345200
 H                  3.86473700   -0.44456400   -0.82122400
 C                 -3.99252600   -0.39129500    0.21117500
 C                 -3.20628200    0.76781000    0.15614600
 C                 -1.84296200    0.60049200   -0.04035700
 C                 -1.26730800   -0.67027400   -0.16003500
 C                 -2.04897900   -1.81022400   -0.10810400
 C                 -3.43181900   -1.66092500    0.07170000
 H                 -5.06881000   -0.29276800    0.35995600
 H                 -3.65156500    1.75795700    0.25481600
 H                 -1.59875900   -2.79946300   -0.21057200
 H                 -4.07205300   -2.54270400    0.10515100
 C                  0.23088600   -0.50309000   -0.25707500
 C                  0.35243900    1.03461400   -0.47190600
 N                 -0.85753200    1.59104000   -0.18338100
 O                  1.34510200    1.63421600   -0.83258900
 O                  0.81771400   -1.25395000   -1.25538800
 C                 -1.12534400    3.01143700   -0.21465500
 H                 -1.84371900    3.25051400   -1.01180400
 H                 -1.53183500    3.34335500    0.75042800
 H                 -0.17863000    3.52656000   -0.41013300
 O                  3.27204900   -0.19825600   -1.54490900
 H                  1.75550900   -0.96407100   -1.38861000
 H                  2.91158800    0.67305500   -1.29870100

