%nprocshared=4
%chk=HSO4_opt_2.chk
# opt=tight freq scrf=(cpcm,solvent=nitromethane) def2svp m062x

HSO4- opt freq

-1 1
 S                 -0.66210043   -0.22829096    0.00298849
 O                 -0.10545287   -1.80278882    0.00298849
 H                 -0.73751858   -2.36614112    0.45545631
 O                 -0.10542413    0.55894734    1.36653803
 O                 -2.33210043   -0.22827038    0.00298849
 O                 -0.10542413    0.55894734   -1.36056105

