%nprocshared=4
%chk=MeNO2_isatin_TS4_freq_twist.chk
# freq scrf=(cpcm,solvent=nitromethane) def2svp m062x

henry sulfate ts4 - freq

-1 1
 N                  0.51257800    0.69257400    1.90088400
 O                  0.68511700    1.90581100    1.81768500
 O                  1.51125800   -0.09988900    1.86595300
 C                 -0.71846500    0.13377100    1.92595400
 H                 -1.53682500    0.82607500    2.10882600
 H                 -0.74717200   -0.90463900    2.23917200
 H                  2.55992500    0.46983100    1.13017100
 C                 -4.94632400   -1.00008100   -0.12647000
 C                 -4.32657500    0.22664300   -0.39792800
 C                 -2.93707900    0.25196200   -0.41721300
 C                 -2.18707500   -0.91075500   -0.15824600
 C                 -2.80926400   -2.12301400    0.09964300
 C                 -4.20765000   -2.16209200    0.11492100
 H                 -6.03633000   -1.04632500   -0.10883100
 H                 -4.91535100    1.12300100   -0.59302700
 H                 -2.21314700   -3.01747900    0.28866700
 H                 -4.72502300   -3.10051000    0.31515300
 C                 -0.76067400   -0.53071200   -0.25950000
 C                 -0.77532800    0.95301000   -0.66232300
 N                 -2.09739600    1.33770500   -0.68032800
 O                  0.19105400    1.62582300   -0.92735000
 O                  0.21983300   -1.26375800   -0.41412500
 C                 -2.54821900    2.67551700   -0.98127400
 H                 -3.16268900    2.68641500   -1.89308100
 H                 -3.13559200    3.08443400   -0.14687400
 H                 -1.65908900    3.29680000   -1.13739800
 H                  1.52709100   -0.75883000   -0.96231400
 O                  2.39631500   -0.48831200   -1.44334100
 S                  3.63276000   -0.44892400   -0.47710200
 O                  3.34214700    0.75717800    0.46841300
 O                  4.77869300   -0.10822000   -1.28953500
 O                  3.66479300   -1.67531300    0.30028600

