%nprocshared=4
%chk=MeNO2_Na2SO4_TS3_product_opt_2.chk
# opt freq int=(grid=ultrafine) scrf=(cpcm,solvent=nitromethane) def2svp m062x

MeNO2+SO4-2 TS3 product opt

-1 1
 N                 -2.38403800   -0.02056500    0.04133300
 O                 -3.37216300   -0.17622100   -0.58186500
 O                 -1.96298800    1.19901500    0.22505200
 C                 -1.64401500   -0.98346200    0.57315300
 H                 -0.77082500   -0.76401000    1.20306100
 H                 -2.02743800   -1.98826400    0.39192900
 H                  0.26961400   -1.40256000   -0.95199700
 O                  0.52278000    1.17176300    0.00979800
 H                 -0.96184600    1.16903600    0.23690300
 S                  1.55225700    0.06910200    0.03050700
 O                  1.13605600   -0.98928600   -1.15169900
 O                  1.46759700   -0.73624400    1.22639700
 O                  2.85956000    0.52158400   -0.36471600

