%nprocshared=4
%chk=MeNO2_isatin_TS4_freq_3.chk
# freq scrf=(cpcm,solvent=nitromethane) def2svp m062x

MeNO2 + isatin TS4 freq

-1 1
 N                  0.47604800    0.94628100    1.87245100
 O                  0.97622800    2.02894800    1.55205600
 O                  1.29840700   -0.11268900    1.97022800
 C                 -0.78173500    0.71254100    2.13116400
 H                 -1.45263700    1.56574800    2.10125000
 H                 -1.06525000   -0.29634800    2.41164300
 H                  2.20659700    0.15382700    1.53062200
 C                 -4.84205200   -1.24877700    0.20992600
 C                 -4.36131500    0.01294400   -0.16306200
 C                 -3.00145200    0.12564300   -0.41950100
 C                 -2.14915500   -0.98969800   -0.30056000
 C                 -2.63634300   -2.23756200    0.06959300
 C                 -4.00307300   -2.36233400    0.32671300
 H                 -5.90758000   -1.36220200    0.41625600
 H                 -5.03171300    0.86800600   -0.24584900
 H                 -1.95822600   -3.08791100    0.15576100
 H                 -4.41959600   -3.32558300    0.62053100
 C                 -0.79917300   -0.51878100   -0.62283600
 C                 -0.95920700    0.99259600   -0.94423300
 N                 -2.29229900    1.27266500   -0.79930000
 O                 -0.06989200    1.73065200   -1.28130700
 O                  0.25928500   -1.09583900   -0.68554000
 C                 -2.87905300    2.57923500   -0.98882300
 H                 -3.65563300    2.54486000   -1.76559200
 H                 -3.31964100    2.94677900   -0.05083400
 H                 -2.07936700    3.25857000   -1.30479500
 H                  1.77377500   -0.18484800   -1.17673000
 O                  2.68396300    0.08456500   -1.43183400
 S                  3.72912000   -0.49049200   -0.34270300
 O                  3.37919700   -1.89346300   -0.13101600
 O                  3.49750200    0.33741200    0.88383800
 O                  5.02936700   -0.22464600   -0.94034700

