%nprocshared=4
%chk=MeNO2_Na2SO4_TS3_freq.chk
# freq scrf=(cpcm,solvent=nitromethane) pop=nbo def2svp m062x

MeNO2+SO4-2 TS3 freq

-1 1
 N                 -2.26335200    0.03457400    0.05950300
 O                 -3.29066500    0.06755800   -0.59243000
 O                 -1.72787500    1.11658700    0.43189400
 C                 -1.61811200   -1.15804500    0.34255800
 H                 -1.07658700   -1.11009500    1.28969800
 H                 -2.25675600   -2.02092800    0.15556600
 H                 -0.35452500   -1.07172200   -0.52295000
 O                  0.76524200    1.35696700    0.07755400
 H                 -0.23487500    1.23503500    0.29314500
 S                  1.51091400   -0.02837800   -0.01721800
 O                  0.63255100   -0.84830600   -1.00398700
 O                  1.49054400   -0.66034700    1.29290100
 O                  2.79273500    0.23354200   -0.63241200

