%nprocshared=4
%chk=MeNO2_isatin_TS4_freq.chk
# freq scrf=(cpcm,solvent=ethanol) pop=nbo def2svp m062x

MeNO2 + isatin TS4 freq

0 1
 N                  1.26020700    0.86764400    1.54973700
 O                  1.21917600    2.08577100    1.47096900
 O                  2.37495500    0.25274600    1.38641700
 C                  0.14426300    0.11173100    1.70623700
 H                 -0.74016000    0.66498000    2.01490200
 H                  0.32286300   -0.91586700    2.00801200
 H                  2.78614800    0.16955300    0.05094700
 C                 -4.33745400   -1.05924000    0.25981100
 C                 -3.76661400    0.17497200   -0.07568000
 C                 -2.39377000    0.20795200   -0.28499200
 C                 -1.61108800   -0.95430100   -0.14566600
 C                 -2.18648600   -2.17437200    0.17929700
 C                 -3.56885000   -2.22086100    0.38246100
 H                 -5.41465800   -1.11188700    0.42527600
 H                 -4.37992700    1.07067500   -0.17340200
 H                 -1.56650000   -3.06746300    0.27351400
 H                 -4.05192400   -3.16420200    0.63734400
 C                 -0.21742000   -0.56148400   -0.42390200
 C                 -0.29241300    0.92181800   -0.80740800
 N                 -1.60048600    1.30271800   -0.64620200
 O                  0.63984900    1.59364900   -1.18274100
 O                  0.73856300   -1.28809500   -0.74565800
 C                 -2.08448700    2.64855400   -0.84970700
 H                 -2.83612600    2.67561000   -1.65122300
 H                 -2.52639000    3.04510600    0.07528100
 H                 -1.22689500    3.26791600   -1.13622200
 O                  2.96024200   -0.24746900   -0.91548400
 H                  1.98607500   -0.64783000   -1.03686300
 C                  3.88121100   -1.34760300   -0.72752500
 H                  3.42421000   -2.06193100   -0.02689700
 H                  3.99376600   -1.83143700   -1.70537100
 C                  5.19437500   -0.81442800   -0.20703100
 H                  5.90599500   -1.64025900   -0.08073200
 H                  5.62193000   -0.08789800   -0.91066800
 H                  5.05366100   -0.32684000    0.76795200

