%nprocshared=4
%chk=MeNO2_isatin_TS4_product_opt.chk
# opt freq scrf=(cpcm,solvent=ethanol) def2svp m062x

MeNO2 + isatin TS4 product opt freq

0 1
 N                  1.40305700    0.75294500    1.55867100
 O                  1.19222800    1.91738500    1.77738400
 O                  2.49755200    0.27451600    1.34780600
 C                  0.22813900   -0.16225100    1.47982400
 H                 -0.57475100    0.32813100    2.03769300
 H                  0.52401800   -1.11694500    1.92900800
 H                  3.12267200    0.45960500   -0.65748100
 C                 -4.36412700   -1.09784400    0.09740900
 C                 -3.80567400    0.13648000   -0.26286500
 C                 -2.42105600    0.22009900   -0.30312100
 C                 -1.60890900   -0.87408800    0.02797900
 C                 -2.16666900   -2.09070100    0.37562600
 C                 -3.56504200   -2.20002800    0.40008000
 H                 -5.45014400   -1.19586100    0.13269800
 H                 -4.43586100    0.99043600   -0.51223500
 H                 -1.53207100   -2.94324200    0.62456900
 H                 -4.03041200   -3.15031600    0.66292200
 C                 -0.17263500   -0.40947800   -0.00267400
 C                 -0.30480700    0.97488000   -0.68147500
 N                 -1.62709700    1.31701900   -0.67821800
 O                  0.62842600    1.62151600   -1.10056400
 O                  0.69293600   -1.25759600   -0.66105900
 C                 -2.14265100    2.58307000   -1.14621700
 H                 -2.79130700    2.43838600   -2.02200500
 H                 -2.71483700    3.07994900   -0.35058800
 H                 -1.28750500    3.20821000   -1.42639300
 O                  3.13295300   -0.28088300   -1.28171500
 H                  1.50477700   -0.77793500   -0.95793000
 C                  3.91714900   -1.32167200   -0.70974100
 H                  3.36301800   -1.79413400    0.11834100
 H                  4.04464700   -2.07489100   -1.49999100
 C                  5.26210200   -0.81857000   -0.22571300
 H                  5.86341900   -1.64692500    0.17327400
 H                  5.81726600   -0.34607400   -1.04823600
 H                  5.12607300   -0.07778200    0.57672500

